*****
  Mrv15b2304182316053D          

 16 17  0  0  0  0            999 V2000
    2.7471    1.2565   -0.8679 C   0  0  0  0  0  0  0  0  0  0  0  0
    1.8872    1.5220    0.2369 C   0  0  0  0  0  0  0  0  0  0  0  0
    0.8047    0.6117    0.4902 C   0  0  0  0  0  0  0  0  0  0  0  0
    0.6064   -0.5203   -0.3718 C   0  0  0  0  0  0  0  0  0  0  0  0
    1.5496   -0.8064   -1.4178 C   0  0  0  0  0  0  0  0  0  0  0  0
    2.6195    0.0944   -1.6880 C   0  0  0  0  0  0  0  0  0  0  0  0
   -0.5977   -1.2870   -0.3720 C   0  0  0  0  0  0  0  0  0  0  0  0
   -0.8252   -2.4733   -0.9728 N   0  5  0  0  0  0  0  0  0  0  0  0
   -2.0832   -2.7341   -0.8817 N   0  0  0  0  0  0  0  0  0  0  0  0
   -2.6699   -1.7641   -0.2453 N   0  0  0  0  0  0  0  0  0  0  0  0
   -1.7975   -0.8769    0.0816 N   0  0  0  0  0  0  0  0  0  0  0  0
    3.4863    1.9259   -1.0823 H   0  0  0  0  0  0  0  0  0  0  0  0
    2.0362    2.3368    0.8322 H   0  0  0  0  0  0  0  0  0  0  0  0
    0.1787    0.7688    1.2801 H   0  0  0  0  0  0  0  0  0  0  0  0
    1.4523   -1.6588   -1.9694 H   0  0  0  0  0  0  0  0  0  0  0  0
    3.2769   -0.0858   -2.4469 H   0  0  0  0  0  0  0  0  0  0  0  0
  1  2  4  0  0  0  0
  2  3  4  0  0  0  0
  3  4  4  0  0  0  0
  4  5  4  0  0  0  0
  5  6  4  0  0  0  0
  1  6  4  0  0  0  0
  4  7  1  0  0  0  0
  7  8  4  0  0  0  0
  8  9  4  0  0  0  0
  9 10  4  0  0  0  0
 10 11  4  0  0  0  0
  7 11  4  0  0  0  0
  1 12  1  0  0  0  0
  2 13  1  0  0  0  0
  3 14  1  0  0  0  0
  5 15  1  0  0  0  0
  6 16  1  0  0  0  0
M  CHG  1   8  -1
M  END
