lig
 OpenBabel04182316053D

 16 17  0  0  0  0  0  0  0  0999 V2000
    1.3810   -0.2275    0.0605 C   0  0  0  0  0  0  0  0  0  0  0  0
    0.4929   -1.3012    0.1274 C   0  0  0  0  0  0  0  0  0  0  0  0
   -0.8842   -1.0743    0.0575 C   0  0  0  0  0  0  0  0  0  0  0  0
   -1.3739    0.2297   -0.0902 C   0  0  0  0  0  0  0  0  0  0  0  0
   -0.4781    1.3041   -0.1537 C   0  0  0  0  0  0  0  0  0  0  0  0
    0.8975    1.0738   -0.0750 C   0  0  0  0  0  0  0  0  0  0  0  0
   -2.8639    0.4753   -0.1862 C   0  0  0  0  0  0  0  0  0  0  0  0
   -3.8036   -0.5037   -0.1307 N   0  0  0  0  0  0  0  0  0  0  0  0
   -4.9863    0.1450   -0.2450 N   0  0  0  0  0  0  0  0  0  0  0  0
   -4.7595    1.4682   -0.3805 N   0  0  0  0  0  0  0  0  0  0  0  0
   -3.4265    1.7014   -0.3429 N   0  0  0  0  0  0  0  0  0  0  0  0
    2.4511   -0.4056    0.1140 H   0  0  0  0  0  0  0  0  0  0  0  0
    0.8651   -2.3160    0.2321 H   0  0  0  0  0  0  0  0  0  0  0  0
   -1.5748   -1.9129    0.1138 H   0  0  0  0  0  0  0  0  0  0  0  0
   -0.8518    2.3198   -0.2653 H   0  0  0  0  0  0  0  0  0  0  0  0
    1.5863    1.9126   -0.1233 H   0  0  0  0  0  0  0  0  0  0  0  0
  1  2  2  0  0  0  0
  1  6  1  0  0  0  0
  1 12  1  0  0  0  0
  2  3  1  0  0  0  0
  2 13  1  0  0  0  0
  3  4  2  0  0  0  0
  3 14  1  0  0  0  0
  4  5  1  0  0  0  0
  4  7  1  0  0  0  0
  5  6  2  0  0  0  0
  5 15  1  0  0  0  0
  6 16  1  0  0  0  0
  7  8  2  0  0  0  0
  7 11  1  0  0  0  0
  8  9  1  0  0  0  0
  9 10  2  0  0  0  0
 10 11  1  0  0  0  0
M  END
